
     RDKit          3D

 49 52  0  0  0  0  0  0  0  0999 V2000
   -4.4766    1.2695   -1.2969 C   0  0  0  0  0  0  0  0  0  0  0  0
   -4.1089   -0.0673   -0.6367 C   0  0  0  0  0  0  0  0  0  0  0  0
   -3.4930    0.1812    0.6333 N   0  0  0  0  0  0  0  0  0  0  0  0
   -4.3166    0.2827    1.8131 C   0  0  0  0  0  0  0  0  0  0  0  0
   -4.5243   -1.0421    2.4964 C   0  0  0  0  0  0  0  0  0  0  0  0
   -2.1050    0.3252    0.7404 C   0  0  0  0  0  0  0  0  0  0  0  0
   -1.6425    0.5958    1.9164 O   0  0  0  0  0  0  0  0  0  0  0  0
   -1.1165    0.1925   -0.3633 C   0  0  0  0  0  0  0  0  0  0  0  0
   -0.7562   -1.2418   -0.5313 C   0  0  0  0  0  0  0  0  0  0  0  0
    0.3345   -1.4289   -1.4622 N   0  0  0  0  0  0  0  0  0  0  0  0
    1.5017   -0.6792   -1.2083 C   0  0  0  0  0  0  0  0  0  0  0  0
    2.6669   -1.5282   -0.7280 C   0  0  0  0  0  0  0  0  0  0  0  0
    3.8001   -0.6784   -0.3006 C   0  0  0  0  0  0  0  0  0  0  0  0
    5.1438   -0.9410   -0.1452 C   0  0  0  0  0  0  0  0  0  0  0  0
    5.7634    0.2136    0.2671 N   0  0  0  0  0  0  0  0  0  0  0  0
    4.8643    1.1925    0.3779 C   0  0  0  0  0  0  0  0  0  0  0  0
    4.8161    2.5350    0.7287 C   0  0  0  0  0  0  0  0  0  0  0  0
    3.6252    3.2317    0.7164 C   0  0  0  0  0  0  0  0  0  0  0  0
    2.4156    2.6281    0.3541 C   0  0  0  0  0  0  0  0  0  0  0  0
    2.4776    1.2973    0.0091 C   0  0  0  0  0  0  0  0  0  0  0  0
    3.6732    0.6344    0.0292 C   0  0  0  0  0  0  0  0  0  0  0  0
    1.2839    0.5092   -0.3970 C   0  0  0  0  0  0  0  0  0  0  0  0
    0.1167    0.9216    0.0004 C   0  0  0  0  0  0  0  0  0  0  0  0
    0.5679   -2.8584   -1.6430 C   0  0  0  0  0  0  0  0  0  0  0  0
   -5.3217    1.0705   -1.9731 H   0  0  0  0  0  0  0  0  0  0  0  0
   -3.6283    1.5931   -1.9049 H   0  0  0  0  0  0  0  0  0  0  0  0
   -4.8138    1.9941   -0.5428 H   0  0  0  0  0  0  0  0  0  0  0  0
   -5.0382   -0.6685   -0.5620 H   0  0  0  0  0  0  0  0  0  0  0  0
   -3.4661   -0.5790   -1.3623 H   0  0  0  0  0  0  0  0  0  0  0  0
   -5.3012    0.6932    1.4918 H   0  0  0  0  0  0  0  0  0  0  0  0
   -3.8400    1.0209    2.5188 H   0  0  0  0  0  0  0  0  0  0  0  0
   -5.5617   -1.1531    2.8976 H   0  0  0  0  0  0  0  0  0  0  0  0
   -4.2103   -1.9034    1.8784 H   0  0  0  0  0  0  0  0  0  0  0  0
   -3.8617   -1.0557    3.3977 H   0  0  0  0  0  0  0  0  0  0  0  0
   -1.5554    0.5556   -1.3157 H   0  0  0  0  0  0  0  0  0  0  0  0
   -1.6018   -1.8499   -0.8767 H   0  0  0  0  0  0  0  0  0  0  0  0
   -0.4272   -1.7062    0.4313 H   0  0  0  0  0  0  0  0  0  0  0  0
    1.8519   -0.2939   -2.2185 H   0  0  0  0  0  0  0  0  0  0  0  0
    2.3249   -2.0979    0.1592 H   0  0  0  0  0  0  0  0  0  0  0  0
    2.9395   -2.2726   -1.5033 H   0  0  0  0  0  0  0  0  0  0  0  0
    5.6821   -1.8678   -0.3024 H   0  0  0  0  0  0  0  0  0  0  0  0
    6.7704    0.3430    0.4706 H   0  0  0  0  0  0  0  0  0  0  0  0
    5.7326    3.0177    1.0106 H   0  0  0  0  0  0  0  0  0  0  0  0
    3.5770    4.2820    0.9886 H   0  0  0  0  0  0  0  0  0  0  0  0
    1.4708    3.1217    0.3236 H   0  0  0  0  0  0  0  0  0  0  0  0
    0.0369    1.8268    0.6252 H   0  0  0  0  0  0  0  0  0  0  0  0
   -0.4422   -3.2856   -1.9052 H   0  0  0  0  0  0  0  0  0  0  0  0
    1.3034   -3.0536   -2.4382 H   0  0  0  0  0  0  0  0  0  0  0  0
    0.8688   -3.2766   -0.6581 H   0  0  0  0  0  0  0  0  0  0  0  0
  1  2  1  0
  2  3  1  0
  3  4  1  0
  4  5  1  0
  3  6  1  0
  6  7  2  0
  6  8  1  0
  8  9  1  0
  9 10  1  0
 10 11  1  0
 11 12  1  0
 12 13  1  0
 13 14  2  0
 14 15  1  0
 15 16  1  0
 16 17  2  0
 17 18  1  0
 18 19  2  0
 19 20  1  0
 20 21  2  0
 20 22  1  0
 22 23  2  0
 10 24  1  0
 23  8  1  0
 22 11  1  0
 21 13  1  0
 21 16  1  0
  1 25  1  0
  1 26  1  0
  1 27  1  0
  2 28  1  0
  2 29  1  0
  4 30  1  0
  4 31  1  0
  5 32  1  0
  5 33  1  0
  5 34  1  0
  8 35  1  0
  9 36  1  0
  9 37  1  0
 11 38  1  0
 12 39  1  0
 12 40  1  0
 14 41  1  0
 15 42  1  0
 17 43  1  0
 18 44  1  0
 19 45  1  0
 23 46  1  0
 24 47  1  0
 24 48  1  0
 24 49  1  0
M  END
